data_MgB2H4
_audit_creation_method           'Created for RBT 2D-SC explorer'
_chemical_name_systematic        'Magnesium diboride tetrahydride'
_chemical_formula_structural     'Mg B2 H4'
_chemical_formula_sum            'Mg B2 H4'
_cell_length_a                   3.0860
_cell_length_b                   3.0860
_cell_length_c                   15.0000
_cell_angle_alpha                90.0000
_cell_angle_beta                 90.0000
_cell_angle_gamma                120.0000
_symmetry_space_group_name_H-M   'P 1'
_symmetry_Int_Tables_number      1

loop_
_atom_site_label
_atom_site_type_symbol
_atom_site_fract_x
_atom_site_fract_y
_atom_site_fract_z
_atom_site_occupancy
Mg1 Mg 0.00000 0.00000 0.50000 1.00000
B1  B  0.33333 0.66667 0.45000 1.00000
B2  B  0.66667 0.33333 0.55000 1.00000
H1  H  0.33333 0.66667 0.40000 1.00000
H2  H  0.66667 0.33333 0.60000 1.00000
H3  H  0.33333 0.66667 0.30000 1.00000
H4  H  0.66667 0.33333 0.70000 1.00000 