# Li2NH - Lithium Amide 2D Structure
# RBT Superconductor Candidate
# Expected to pass both K=0 and energy threshold tests

data_Li2NH
_audit_creation_date              2024-01-15
_audit_creation_method            'Generated for RBT screening'
_audit_update_record             
;
2024-01-15 Generated as example for RBT-2D-SC-Explorer
;

_chemical_name_systematic         'Lithium amide'
_chemical_name_common             'Li2NH'
_chemical_formula_analytical      'Li2NH'
_chemical_formula_sum             'H1 Li2 N1'
_chemical_formula_weight          40.916

_space_group_IT_number            194
_space_group_name_H-M_alt         'P 63/m m c'
_space_group_name_Hall            '-P 6c 2c'

_cell_length_a                    3.520
_cell_length_b                    3.520
_cell_length_c                    20.000
_cell_angle_alpha                 90.000
_cell_angle_beta                  90.000
_cell_angle_gamma                 120.000
_cell_volume                      214.36
_cell_formula_units_Z             2

_atom_sites_solution_primary      direct
_atom_sites_solution_secondary    difmap

loop_
_atom_site_label
_atom_site_type_symbol
_atom_site_fract_x
_atom_site_fract_y
_atom_site_fract_z
_atom_site_occupancy
_atom_site_B_iso_or_equiv
Li1  Li  0.33333  0.66667  0.12500  1.000  1.50
Li2  Li  0.66667  0.33333  0.87500  1.000  1.50
N1   N   0.00000  0.00000  0.00000  1.000  1.20
H1   H   0.00000  0.00000  0.05000  1.000  2.00

loop_
_atom_site_aniso_label
_atom_site_aniso_U_11
_atom_site_aniso_U_22
_atom_site_aniso_U_33
_atom_site_aniso_U_23
_atom_site_aniso_U_13
_atom_site_aniso_U_12
Li1  0.0190  0.0190  0.0150  0.0000  0.0000  0.0095
Li2  0.0190  0.0190  0.0150  0.0000  0.0000  0.0095
N1   0.0120  0.0120  0.0100  0.0000  0.0000  0.0060
H1   0.0250  0.0250  0.0200  0.0000  0.0000  0.0125

# Bond information (for reference)
# Li-N bonds: ~2.10 Å
# N-H bond: ~1.02 Å  
# Expected phonon energy: ~87 meV (above 81 meV threshold)
# Expected parity: K = 0 (even coordination) 