data_Li2NH

_cell_length_a    3.520
_cell_length_b    3.520
_cell_length_c    20.000
_cell_angle_alpha 90.0
_cell_angle_beta  90.0
_cell_angle_gamma 120.0

_symmetry_space_group_name_H-M 'P 1'
_symmetry_Int_Tables_number    1

loop_
_atom_site_label
_atom_site_type_symbol
_atom_site_fract_x
_atom_site_fract_y
_atom_site_fract_z
Li1 Li 0.33333 0.66667 0.12500
Li2 Li 0.66667 0.33333 0.87500
N1  N  0.00000 0.00000 0.00000
H1  H  0.00000 0.00000 0.05000 